3
Lattice="3.1840664646845926 0.0 0.0 -1.5920332323422963 2.757482445754964 0.0 0.0 0.0 18.12711264635152" Properties=species:S:1:pos:R:3 energy=-22.121104868435815 dipole="3.414329368032466 -1.9712639797355933 1.1033907114109559e-11" free_energy=-22.121104870697163 pbc="T T F"
Mo       0.00000000       0.00000000       9.06355632
S        1.59203323       0.91916082      10.62711265
S        1.59203323       0.91916082       7.50000000
